/*--------------------------------*- C++ -*----------------------------------*\
| =========                 |                                                 |
| \\      /  F ield         | OpenFOAM: The Open Source CFD Toolbox           |
|  \\    /   O peration     | Version:  2212                                  |
|   \\  /    A nd           | Website:  www.openfoam.com                      |
|    \\/     M anipulation  |                                                 |
\*---------------------------------------------------------------------------*/
FoamFile
{
    version     2.0;
    format      ascii;
    arch        "LSB;label=32;scalar=64";
    class       polyBoundaryMesh;
    location    "constant/polyMesh";
    object      boundary;
}
// * * * * * * * * * * * * * * * * * * * * * * * * * * * * * * * * * * * * * //

5
(
    walls
    {
        type            wall;
        inGroups        1(wall);
        nFaces          32;
        startFace       1984;
    }
    cylinder
    {
        type            wall;
        inGroups        1(wall);
        nFaces          64;
        startFace       2016;
    }
    outlet
    {
        type            patch;
        nFaces          16;
        startFace       2080;
    }
    inlet
    {
        type            patch;
        nFaces          16;
        startFace       2096;
    }
    frontAndBack
    {
        type            empty;
        inGroups        1(empty);
        nFaces          2048;
        startFace       2112;
    }
)

// ************************************************************************* //
