/*--------------------------------*- C++ -*----------------------------------*\
| =========                 |                                                 |
| \\      /  F ield         | OpenFOAM: The Open Source CFD Toolbox           |
|  \\    /   O peration     | Version:  2212                                  |
|   \\  /    A nd           | Website:  www.openfoam.com                      |
|    \\/     M anipulation  |                                                 |
\*---------------------------------------------------------------------------*/
FoamFile
{
    version     2.0;
    format      ascii;
    arch        "LSB;label=32;scalar=64";
    class       volScalarField;
    location    "0";
    object      cellZone;
}
// * * * * * * * * * * * * * * * * * * * * * * * * * * * * * * * * * * * * * //

dimensions      [0 0 0 0 0 0 0];

internalField   uniform -1;

boundaryField
{
    walls
    {
        type            calculated;
        value           uniform -1;
    }
    cylinder
    {
        type            calculated;
        value           uniform -1;
    }
    outlet
    {
        type            calculated;
        value           uniform -1;
    }
    inlet
    {
        type            calculated;
        value           uniform -1;
    }
    frontAndBack
    {
        type            empty;
    }
}


// ************************************************************************* //
