/*--------------------------------*- C++ -*----------------------------------*\
| =========                 |                                                 |
| \\      /  F ield         | OpenFOAM: The Open Source CFD Toolbox           |
|  \\    /   O peration     | Version:  v2306                                 |
|   \\  /    A nd           | Website:  www.openfoam.com                      |
|    \\/     M anipulation  |                                                 |
\*---------------------------------------------------------------------------*/
FoamFile
{
    version     2.0;
    format      ascii;
    class       dictionary;
    object      turbulenceProperties;
}
// * * * * * * * * * * * * * * * * * * * * * * * * * * * * * * * * * * * * * //

simulationType      RAS;

RAS
{
    // Tested with kEpsilon, realizableKE, kOmega, kOmegaSST,
    // ShihQuadraticKE, LienCubicKE.
    RASModel        kEpsilon;

    turbulence      on;

    printCoeffs     on;

    Cmu             !Cmu!;
    C1              !C1!;
    C2              !C2!;
    sigmaEps        !sigmaEps!;
}


// ************************************************************************* //
